Circuit: * C:\Users\Hamza Mahmood\Documents\Hamza 15th\CMPE314 All\Labs\Lab0.asc

Error on line 2 : v1 n001 0 v
	 Unknown parameter "v"
V1: Missing value, assumed 0V @ DC
.OP point found by inspection.

Date: Thu Sep 06 09:12:35 2018
Total elapsed time: 0.079 seconds.

tnom = 27
temp = 27
method = trap
totiter = 200
traniter = 0
tranpoints = 0
accept = 0
rejected = 0
matrix size = 2
fillins = 0
solver = Normal
Matrix Compiler1: 36 bytes object code size  0.0/0.0/[0.0]
Matrix Compiler2: 96 bytes object code size  0.0/0.0/[0.0]

